Version 4
SHEET 1 1468 680
WIRE 384 -96 272 -96
WIRE 272 0 272 -96
WIRE 272 96 272 80
WIRE 272 128 272 96
WIRE 288 176 272 176
WIRE 0 208 -32 208
WIRE 160 208 96 208
WIRE 224 208 160 208
WIRE 288 224 288 176
WIRE 288 224 272 224
WIRE 224 256 80 256
WIRE 288 256 288 224
WIRE -32 288 -32 208
WIRE 80 288 -32 288
WIRE 80 320 80 288
WIRE 416 320 400 320
WIRE 464 320 416 320
WIRE 464 336 464 320
WIRE 224 400 224 256
WIRE 400 400 400 320
WIRE 400 400 224 400
FLAG 288 256 0
FLAG 48 208 0
FLAG 384 -96 Vdd
FLAG 80 400 0
FLAG 464 416 0
FLAG 272 96 Vout
FLAG 160 208 Vinver
FLAG 416 320 Vin
SYMBOL nmos4 224 128 R0
WINDOW 0 86 32 Left 2
WINDOW 3 84 65 Left 2
WINDOW 123 80 92 Left 2
SYMATTR InstName M1
SYMATTR Value CMOSN
SYMATTR Value2 l=180n w=240n
SYMBOL nmos4 0 256 R270
WINDOW 0 66 -2 Left 2
WINDOW 123 76 44 Left 2
SYMATTR InstName M2
SYMATTR Value2 l=180n w=Wn
SYMATTR Value CMOSN
SYMBOL voltage 80 304 R0
WINDOW 123 0 0 Left 0
WINDOW 39 0 0 Left 0
SYMATTR InstName V1
SYMATTR Value 1.8
SYMBOL res 256 -16 R0
SYMATTR InstName R1
SYMATTR Value 39.5k
SYMBOL voltage 464 320 R0
WINDOW 0 37 40 Left 2
WINDOW 3 -259 121 Left 2
WINDOW 123 0 0 Left 0
WINDOW 39 0 0 Left 0
SYMATTR InstName V2
SYMATTR Value PULSE(0 1.8 8n 5n 5n 20n 50n)
TEXT 456 144 Left 2 !.step param Wn 240n 940n 240n
TEXT 456 176 Left 2 !;dc V2 0 1.8 0.01
TEXT 464 96 Left 2 !.lib C:\\Users\\JARVIS\\Desktop\\rik\\tsmc018.lib
TEXT 456 200 Left 2 !.tran 100n
TEXT 464 256 Left 2 !.meas TRAN  t_hl TRIG V(Vout)=1.62 TD=0 FALL=1 TARG V(Vout)=0.18 TD=0 FALL=1\n.meas TRAN t_lh TRIG V(Vout)=0.18 TD=0 RISE=1 TARG V(Vout)=1.62 TD=0 RISE=1
