Version 4
SHEET 1 1136 680
WIRE 208 16 208 -16
WIRE 224 16 208 16
WIRE 160 32 112 32
WIRE 512 32 512 -16
WIRE 224 64 224 16
WIRE 224 64 208 64
WIRE 112 144 112 32
WIRE 112 144 64 144
WIRE 208 144 208 112
WIRE 576 144 208 144
WIRE 208 176 208 144
WIRE 112 256 112 144
WIRE 160 256 112 256
FLAG 208 224 0
FLAG 208 272 0
FLAG 512 112 0
FLAG 512 -16 VDD
FLAG -432 192 0
FLAG -432 112 Vin
FLAG 64 144 Vin
FLAG 208 -16 VDD
FLAG 576 144 Vout
SYMBOL nmos4 160 176 R0
WINDOW 123 75 101 Left 2
SYMATTR Value2 l=180n w=240n
SYMATTR InstName M1
SYMATTR Value CMOSN
SYMBOL pmos4 160 112 M180
WINDOW 123 57 4 Left 2
SYMATTR Value2 l=180n w=665n
SYMATTR InstName M2
SYMATTR Value CMOSP
SYMBOL voltage 512 16 R0
WINDOW 123 0 0 Left 0
WINDOW 39 0 0 Left 0
SYMATTR InstName V1
SYMATTR Value 1.8
SYMBOL voltage -432 96 R0
WINDOW 123 0 0 Left 0
WINDOW 39 0 0 Left 0
SYMATTR InstName V2
SYMATTR Value PULSE(0 1.8 8n 5n 5n 20n 50n)
TEXT -240 24 Left 2 !.lib tsmc018.lib
TEXT -240 48 Left 2 !.dc V2 0 1.8 0.01
TEXT -240 72 Left 2 !.tran 100n
TEXT -280 -176 Left 2 !.meas TRAN  t_hl TRIG V(Vout)=1.62 TD=0 FALL=1 TARG V(Vout)=0.18 TD=0 FALL=1\n.meas TRAN  t_lh TRIG V(Vout)=.18 TD=0 RISE=1 TARG V(Vout)=1.62 TD=0 RISE=1
TEXT 736 -48 Left 2 !;.param Wp=2.77*Wn
TEXT 744 0 Left 2 !.step param Wn 240n 960n 240n
